results/p2y1_polyP_14_output.pdbqt
 OpenBabel02062416563D

 57 56  0  0  0  0  0  0  0  0999 V2000
  -18.1360   -9.3340   21.9240 O   0  0  0  0  0  0  0  0  0  0  0  0
  -17.7430   -9.3380   23.6090 P   0  0  2  0  0  0  0  0  0  0  0  0
  -16.4050   -9.9830   23.1420 O   0  0  0  0  0  0  0  0  0  0  0  0
  -17.3500   -9.3410   25.2940 O   0  0  0  0  0  0  0  0  0  0  0  0
  -17.5290   -7.6640   23.5240 O   0  0  0  0  0  0  0  0  0  0  0  0
  -16.5220   -6.4280   23.9400 P   0  0  1  0  0  0  0  0  0  0  0  0
  -17.1690   -5.0510   23.6440 O   0  0  0  0  0  0  0  0  0  0  0  0
  -16.2470   -6.5740   25.4440 O   0  0  0  0  0  0  0  0  0  0  0  0
  -15.1210   -6.5970   23.1510 O   0  0  0  0  0  0  0  0  0  0  0  0
  -13.6850   -7.3310   23.2980 P   0  0  1  0  0  0  0  0  0  0  0  0
  -13.2420   -7.4860   24.7650 O   0  0  0  0  0  0  0  0  0  0  0  0
  -13.6640   -8.6850   22.5510 O   0  0  0  0  0  0  0  0  0  0  0  0
  -12.7530   -6.2820   22.5200 O   0  0  0  0  0  0  0  0  0  0  0  0
  -11.2470   -5.8110   22.2200 P   0  0  1  0  0  0  0  0  0  0  0  0
  -11.0900   -4.3040   22.4590 O   0  0  0  0  0  0  0  0  0  0  0  0
  -10.2440   -6.6510   23.0350 O   0  0  0  0  0  0  0  0  0  0  0  0
  -11.1700   -6.2070   20.6640 O   0  0  0  0  0  0  0  0  0  0  0  0
  -11.9620   -6.9530   19.4750 P   0  0  1  0  0  0  0  0  0  0  0  0
  -12.2890   -8.3860   19.8990 O   0  0  0  0  0  0  0  0  0  0  0  0
  -13.2340   -6.1340   19.1700 O   0  0  0  0  0  0  0  0  0  0  0  0
  -10.8490   -6.8860   18.2970 O   0  0  0  0  0  0  0  0  0  0  0  0
  -10.5080   -5.9580   17.0210 P   0  0  1  0  0  0  0  0  0  0  0  0
  -10.3440   -4.5050   17.5050 O   0  0  0  0  0  0  0  0  0  0  0  0
   -9.2940   -6.5190   16.2920 O   0  0  0  0  0  0  0  0  0  0  0  0
  -11.8900   -6.0700   16.1060 O   0  0  0  0  0  0  0  0  0  0  0  0
  -13.2670   -5.2250   15.7840 P   0  0  0  0  0  0  0  0  0  0  0  0
  -13.1850   -3.8690   16.5160 O   0  0  0  0  0  0  0  0  0  0  0  0
  -14.5020   -6.0050   16.2380 O   0  0  0  0  0  0  0  0  0  0  0  0
  -13.3500   -4.9310   14.2730 O   0  0  0  0  0  0  0  0  0  0  0  0
  -17.2510   -9.0980   20.5530 P   0  0  1  0  0  0  0  0  0  0  0  0
  -15.9830   -9.9410   20.5330 O   0  0  0  0  0  0  0  0  0  0  0  0
  -18.1680   -9.2510   19.3310 O   0  0  0  0  0  0  0  0  0  0  0  0
  -16.8640   -7.5300   20.6870 O   0  0  0  0  0  0  0  0  0  0  0  0
  -16.9600   -6.2030   19.8070 P   0  0  1  0  0  0  0  0  0  0  0  0
  -15.9830   -5.1040   20.2750 O   0  0  0  0  0  0  0  0  0  0  0  0
  -16.8470   -6.4560   18.3010 O   0  0  0  0  0  0  0  0  0  0  0  0
  -18.4550   -5.7430   20.2360 O   0  0  0  0  0  0  0  0  0  0  0  0
  -19.3310   -4.4010   20.3290 P   0  0  1  0  0  0  0  0  0  0  0  0
  -18.9960   -3.6910   21.6570 O   0  0  0  0  0  0  0  0  0  0  0  0
  -19.0770   -3.4880   19.1330 O   0  0  0  0  0  0  0  0  0  0  0  0
  -20.9050   -4.8840   20.2590 O   0  0  0  0  0  0  0  0  0  0  0  0
  -21.9510   -5.5680   21.3220 P   0  0  1  0  0  0  0  0  0  0  0  0
  -23.2390   -5.9510   20.5830 O   0  0  0  0  0  0  0  0  0  0  0  0
  -21.2560   -6.7530   21.9850 O   0  0  0  0  0  0  0  0  0  0  0  0
  -22.3450   -4.4120   22.4650 O   0  0  0  0  0  0  0  0  0  0  0  0
  -22.9460   -2.8650   22.3870 P   0  0  1  0  0  0  0  0  0  0  0  0
  -23.9790   -2.7750   21.2600 O   0  0  0  0  0  0  0  0  0  0  0  0
  -23.4690   -2.5150   23.7880 O   0  0  0  0  0  0  0  0  0  0  0  0
  -21.6700   -1.8190   22.0310 O   0  0  0  0  0  0  0  0  0  0  0  0
  -21.4910   -0.9030   20.6230 P   0  0  1  0  0  0  0  0  0  0  0  0
  -22.4940    0.2580   20.6900 O   0  0  0  0  0  0  0  0  0  0  0  0
  -20.0070   -0.5150   20.4790 O   0  0  0  0  0  0  0  0  0  0  0  0
  -21.8830   -1.8450   19.3090 O   0  0  0  0  0  0  0  0  0  0  0  0
  -22.1560   -1.4960   17.6920 P   0  0  0  0  0  0  0  0  0  0  0  0
  -23.0930   -0.2720   17.5560 O   0  0  0  0  0  0  0  0  0  0  0  0
  -20.8200   -1.1150   17.0200 O   0  0  0  0  0  0  0  0  0  0  0  0
  -22.7860   -2.7100   16.9690 O   0  0  0  0  0  0  0  0  0  0  0  0
  1  2  1  0  0  0  0
  2  3  2  6  0  0  0
  2  4  1  0  0  0  0
  5  2  1  0  0  0  0
  5  6  1  0  0  0  0
  6  7  2  6  0  0  0
  6  8  1  0  0  0  0
  9 10  1  0  0  0  0
  9  6  1  0  0  0  0
 10 12  2  6  0  0  0
 10 11  1  0  0  0  0
 13 10  1  0  0  0  0
 14 15  2  1  0  0  0
 14 13  1  0  0  0  0
 14 16  1  0  0  0  0
 17 14  1  0  0  0  0
 18 20  2  6  0  0  0
 18 19  1  0  0  0  0
 18 17  1  0  0  0  0
 21 18  1  0  0  0  0
 22 24  2  6  0  0  0
 22 23  1  0  0  0  0
 22 21  1  0  0  0  0
 25 22  1  0  0  0  0
 26 25  1  0  0  0  0
 26 28  1  0  0  0  0
 26 27  1  0  0  0  0
 29 26  2  0  0  0  0
 30 32  2  6  0  0  0
 30 33  1  0  0  0  0
 30  1  1  0  0  0  0
 31 30  1  0  0  0  0
 34 36  2  6  0  0  0
 34 37  1  0  0  0  0
 34 35  1  0  0  0  0
 34 33  1  0  0  0  0
 37 38  1  0  0  0  0
 38 40  2  6  0  0  0
 38 39  1  0  0  0  0
 41 38  1  0  0  0  0
 41 42  1  0  0  0  0
 42 43  2  6  0  0  0
 42 44  1  0  0  0  0
 42 45  1  0  0  0  0
 46 47  2  6  0  0  0
 46 45  1  0  0  0  0
 46 48  1  0  0  0  0
 49 46  1  0  0  0  0
 50 52  2  6  0  0  0
 50 51  1  0  0  0  0
 50 49  1  0  0  0  0
 53 50  1  0  0  0  0
 54 53  1  0  0  0  0
 55 54  1  0  0  0  0
 56 54  1  0  0  0  0
 57 54  2  0  0  0  0
M  END
>  <MODEL>
1

>  <REMARK>
 VINA RESULT:      -8.1      0.000      0.000
  26 active torsions:
  status: ('A' for Active; 'I' for Inactive)
    1  A    between atoms: O_3  and  P_2 
    2  A    between atoms: P_2  and  O_4 
    3  A    between atoms: P_6  and  O_3 
    4  A    between atoms: O_4  and  P_7 
    5  A    between atoms: O_8  and  P_6 
    6  A    between atoms: P_7  and  O_11 
    7  A    between atoms: P_14  and  O_8 
    8  A    between atoms: O_11  and  P_15 
    9  A    between atoms: O_16  and  P_14 
   10  A    between atoms: P_15  and  O_19 
   11  A    between atoms: P_22  and  O_16 
   12  A    between atoms: O_19  and  P_23 
   13  A    between atoms: O_24  and  P_22 
   14  A    between atoms: P_23  and  O_27 
   15  A    between atoms: P_30  and  O_24 
   16  A    between atoms: O_27  and  P_31 
   17  A    between atoms: O_32  and  P_30 
   18  A    between atoms: P_31  and  O_35 
   19  A    between atoms: P_38  and  O_32 
   20  A    between atoms: O_35  and  P_39 
   21  A    between atoms: O_40  and  P_38 
   22  A    between atoms: P_39  and  O_43 
   23  A    between atoms: P_46  and  O_40 
   24  A    between atoms: O_43  and  P_47 
   25  A    between atoms: P_47  and  O_51 
   26  A    between atoms: O_51  and  P_54 

>  <TORSDO>
F 26

$$$$
