results/p2y1_ADP_output.pdbqt
 OpenBabel02132414423D

 32 34  0  0  1  0  0  0  0  0999 V2000
  -14.5940   -6.7920   21.2540 C   0  0  2  0  0  0  0  0  0  0  0  0
  -14.4520   -7.4230   19.9460 O   0  0  0  0  0  0  0  0  0  0  0  0
  -15.3350   -5.4720   21.0330 C   0  0  1  0  0  0  0  0  0  0  0  0
  -15.0880   -6.5560   18.9570 C   0  0  1  0  0  0  0  0  0  0  0  0
  -16.0890   -5.7280   19.7460 C   0  0  1  0  0  0  0  0  0  0  0  0
  -13.2750   -6.6640   21.8510 N   0  0  0  0  0  0  0  0  0  0  0  0
  -12.9310   -6.9940   23.1340 C   0  0  0  0  0  0  0  0  0  0  0  0
  -11.6330   -6.5320   23.2810 C   0  0  0  0  0  0  0  0  0  0  0  0
  -13.6990   -7.5510   24.0820 N   0  0  0  0  0  0  0  0  0  0  0  0
  -11.0920   -6.5770   24.5770 C   0  0  0  0  0  0  0  0  0  0  0  0
  -11.1210   -6.0860   22.0750 N   0  0  0  0  0  0  0  0  0  0  0  0
  -11.8410   -7.0710   25.5880 N   0  0  0  0  0  0  0  0  0  0  0  0
  -13.0990   -7.4720   25.2870 C   0  0  0  0  0  0  0  0  0  0  0  0
  -12.1500   -6.1470   21.2540 C   0  0  0  0  0  0  0  0  0  0  0  0
   -9.8300   -6.0380   24.8920 N   0  0  0  0  0  0  0  0  0  0  0  0
   -9.2180   -6.8400   24.9970 H   0  0  0  0  0  0  0  0  0  0  0  0
   -9.9500   -5.5070   25.7550 H   0  0  0  0  0  0  0  0  0  0  0  0
  -16.2380   -5.0720   22.0670 O   0  0  0  0  0  0  0  0  0  0  0  0
  -15.6340   -5.0590   22.8620 H   0  0  0  0  0  0  0  0  0  0  0  0
  -17.2620   -6.5190   20.0580 O   0  0  0  0  0  0  0  0  0  0  0  0
  -17.9730   -5.8440   20.0720 H   0  0  0  0  0  0  0  0  0  0  0  0
  -14.0190   -5.7370   18.2020 C   0  0  0  0  0  0  0  0  0  0  0  0
  -13.9060   -6.1090   16.8380 O   0  0  0  0  0  0  0  0  0  0  0  0
  -12.8970   -5.2160   15.9250 P   0  0  1  0  0  0  0  0  0  0  0  0
  -13.4830   -5.1860   14.5290 O   0  0  0  0  0  0  0  0  0  0  0  0
  -12.6940   -3.9010   16.6480 O   0  0  0  0  0  0  0  0  0  0  0  0
  -11.5460   -6.0630   15.9180 O   0  0  0  0  0  0  0  0  0  0  0  0
  -10.3430   -6.2380   16.9430 P   0  0  1  0  0  0  0  0  0  0  0  0
   -9.4030   -5.0610   17.0560 O   0  0  0  0  0  0  0  0  0  0  0  0
  -10.7890   -7.0080   18.1590 O   0  0  0  0  0  0  0  0  0  0  0  0
   -9.5300   -7.4050   16.1700 O   0  0  0  0  0  0  0  0  0  0  0  0
   -9.7020   -7.1390   15.2490 H   0  0  0  0  0  0  0  0  0  0  0  0
  1  6  1  6  0  0  0
  2  1  1  0  0  0  0
  3  1  1  0  0  0  0
  3 18  1  1  0  0  0
  4 22  1  1  0  0  0
  4  5  1  0  0  0  0
  4  2  1  0  0  0  0
  5 20  1  1  0  0  0
  5  3  1  0  0  0  0
  6  7  1  0  0  0  0
  7  8  2  0  0  0  0
  7  9  1  0  0  0  0
  8 10  1  0  0  0  0
  9 13  2  0  0  0  0
 10 15  1  0  0  0  0
 10 12  2  0  0  0  0
 11  8  1  0  0  0  0
 13 12  1  0  0  0  0
 14  6  1  0  0  0  0
 14 11  2  0  0  0  0
 15 16  1  0  0  0  0
 15 17  1  0  0  0  0
 18 19  1  0  0  0  0
 20 21  1  0  0  0  0
 23 22  1  0  0  0  0
 24 25  2  6  0  0  0
 24 26  1  0  0  0  0
 24 23  1  0  0  0  0
 27 24  1  0  0  0  0
 27 28  1  0  0  0  0
 28 29  2  1  0  0  0
 28 30  1  0  0  0  0
 31 28  1  0  0  0  0
 32 31  1  0  0  0  0
M  END
>  <MODEL>
1

>  <REMARK>
 VINA RESULT:      -9.0      0.000      0.000
  10 active torsions:
  status: ('A' for Active; 'I' for Inactive)
    1  A    between atoms: C_2  and  N_1 
    2  A    between atoms: N_10  and  C_11 
    3  A    between atoms: C_13  and  O_15 
    4  A    between atoms: C_14  and  C_17 
    5  A    between atoms: C_16  and  O_18 
    6  A    between atoms: C_17  and  O_19 
    7  A    between atoms: O_19  and  P_20 
    8  A    between atoms: P_20  and  O_21 
    9  A    between atoms: O_21  and  P_24 
   10  A    between atoms: P_24  and  O_26 

>  <TORSDO>
F 10

$$$$
